@<TRIPOS>MOLECULE
Cpptraj generated mol2 file.
  137   145     1     0     0
SMALL
USER_CHARGES


@<TRIPOS>ATOM
      1 CAA        79.6714   58.7114   34.5540 a2         1 CLA     -0.0611779
      2 CAB        79.7270   62.1002   43.8184 c8         1 CLA     0.0175852
      3 CAC        72.6575   58.3211   42.9327 a2         1 CLA     0.0101800
      4 CAD        75.5962   55.9282   35.7120 ck         1 CLA     -0.0132723
      5 NA         78.6641   58.9898   37.9578 ns         1 CLA     -0.0457645
      6 CBA        80.8755   58.5132   33.7465 a2         1 CLA     0.0246758
      7 CBB        80.5219   63.1943   44.1324 c0         1 CLA     -0.0171993
      8 CBC        72.6758   56.7981   43.0102 a3         1 CLA     -0.0093934
      9 CBD        77.0209   56.5394   35.3392 a1         1 CLA     0.0766074
     10 NB         78.5413   60.3949   40.6760 nm         1 CLA     0.0944338
     11 OBD        74.9178   55.0859   35.1031 o2         1 CLA     0.0154319
     12 CGA        81.3471   57.0102   33.4845 c4         1 CLA     -0.0156515
     13 CGD        77.9815   55.3967   35.1666 c4         1 CLA     -0.0200050
     14 ND         75.8963   58.1455   38.5737 nm         1 CLA     -0.0809918
     15 CED        79.1645   53.6987   36.4056 a3         1 CLA     0.0040365
     16 CHA        77.3116   57.5589   36.4761 cs         1 CLA     -0.1434470
     17 CHB        80.3918   60.3770   38.9617 aa         1 CLA     0.0123287
     18 CHC        77.2549   60.5149   42.8353 aa         1 CLA     0.2216830
     19 CHD        74.0370   57.8546   40.1364 aa         1 CLA     -0.0542921
     20 CMA        81.9772   58.1113   37.4638 a3         1 CLA     0.0266866
     21 CMB        81.7531   62.1107   41.1563 a3         1 CLA     0.0435609
     22 CMC        74.7472   59.8928   44.7944 a3         1 CLA     0.0236507
     23 CMD        72.7969   56.0914   37.8076 a3         1 CLA     -0.0609964
     24 C1         82.4728   55.1807   34.5407 a2         1 CLA     0.0087113
     25 C1A        78.4861   58.2637   36.7742 ac         1 CLA     0.1268580
     26 C1B        79.7367   60.8443   40.1984 cr         1 CLA     -0.0345042
     27 C1C        76.0975   59.7911   42.4839 cn         1 CLA     -0.2043760
     28 C1D        74.6078   57.6273   38.9169 ap         1 CLA     0.0760142
     29 O1A        81.0026   56.3170   32.5500 o2         1 CLA     0.0050873
     30 O1D        78.5452   55.1432   34.1178 o2         1 CLA     0.0006922
     31 C2         83.0162   54.9805   35.9395 c8         1 CLA     0.0000000
     32 C2A        79.7725   58.2010   36.0226 a1         1 CLA     0.0764245
     33 C2B        80.3640   61.5641   41.2469 cb         1 CLA     -0.0466821
     34 C2C        74.9648   59.5051   43.3305 cb         1 CLA     0.0165461
     35 C2D        74.0842   56.8038   37.7568 cb         1 CLA     0.0549912
     36 O2A        82.1048   56.6393   34.5351 o1         1 CLA     0.0003302
     37 O2D        78.1979   54.8042   36.3922 o1         1 CLA     0.0040281
     38 C3         84.3383   54.6494   36.0794 c5         1 CLA     0.0000000
     39 C3A        80.7665   58.9702   36.9447 a1         1 CLA     -0.0469336
     40 C3B        79.4903   61.6259   42.3760 cb         1 CLA     -0.0076871
     41 C3C        74.0147   58.7743   42.5228 cb         1 CLA     -0.0337389
     42 C3D        75.1713   56.6938   36.8590 cb         1 CLA     0.0364969
     43 C4         84.8716   53.2321   36.2368 a3         1 CLA     0.0000000
     44 C4A        79.9151   59.5311   37.9903 ac         1 CLA     -0.0958259
     45 C4B        78.3608   60.8166   41.9936 cn         1 CLA     -0.1779410
     46 C4C        74.5869   58.4796   41.2228 cr         1 CLA     0.0674294
     47 C4D        76.2028   57.5412   37.3115 c6         1 CLA     0.1443260
     48 C5         85.3648   55.7897   36.2379 a2         1 CLA     0.0000000
     49 C6         85.3567   56.3428   37.6644 a2         1 CLA     0.0000000
     50 C7         86.3394   57.5606   37.9969 a2         1 CLA     0.0000000
     51 C8         87.7878   57.3003   38.4075 a1         1 CLA     0.0000000
     52 C9         88.5037   56.2401   37.4899 a3         1 CLA     0.0000000
     53 C10        87.9312   56.8150   39.9262 a2         1 CLA     0.0000000
     54 C11        87.5765   57.9079   40.9514 a2         1 CLA     0.0000000
     55 C12        87.9286   57.4728   42.3995 a2         1 CLA     0.0000000
     56 C13        87.4414   58.3685   43.5309 a1         1 CLA     0.0000000
     57 C14        88.2338   59.6273   43.8236 a3         1 CLA     0.0000000
     58 C15        87.2414   57.5479   44.9030 a2         1 CLA     0.0000000
     59 C16        86.7122   58.3080   46.2212 a2         1 CLA     0.0000000
     60 C17        85.3430   59.0568   45.9210 a2         1 CLA     0.0000000
     61 C18        84.7221   59.9583   47.0528 a1         1 CLA     0.0000000
     62 C19        85.5471   61.2104   47.2881 a3         1 CLA     0.0000000
     63 C20        83.2769   60.2934   46.7146 a3         1 CLA     0.0000000
     64 NC         75.8587   59.1393   41.2121 nx         1 CLA     0.0365717
     65 MG         77.1808   59.2428   39.5811 mg         1 CLA     -0.0063755
     66 HMD3       72.7562   55.5547   38.7281 dc         1 CLA     0.0179582
     67 HMD2       71.9472   56.8179   37.7581 dc         1 CLA     0.0123366
     68 HMD1       72.8005   55.4177   36.9833 dc         1 CLA     0.0180857
     69 HMC3       75.5839   60.4863   45.0790 dc         1 CLA     -0.0035535
     70 HMC2       73.8190   60.5462   44.9541 dc         1 CLA     -0.0054889
     71 HMC1       74.7997   59.0063   45.4757 dc         1 CLA     -0.0057359
     72 HMB3       82.3196   62.0614   42.1038 dc         1 CLA     -0.0116015
     73 HMB2       82.3035   61.4755   40.4212 dc         1 CLA     -0.0103548
     74 HMB1       81.7412   63.1717   40.8372 dc         1 CLA     -0.0110806
     75 HMA3       82.6818   58.6990   38.1017 dc         1 CLA     -0.0065030
     76 HMA2       81.5043   57.3643   38.0913 dc         1 CLA     -0.0038493
     77 HMA1       82.4793   57.5549   36.7002 dc         1 CLA     -0.0067551
     78 HED3       79.3084   53.3512   37.4544 dc         1 CLA     0.0000696
     79 HED2       78.8509   52.9106   35.7432 dc         1 CLA     -0.0025613
     80 HED1       80.1043   54.1184   36.0533 dc         1 CLA     -0.0008860
     81 HBC3       73.5228   56.4460   43.6458 dc         1 CLA     0.0002666
     82 HBC2       71.6781   56.3757   43.2466 dc         1 CLA     0.0020778
     83 HBC1       72.9054   56.3470   42.0138 dc         1 CLA     0.0034465
     84 HBB2       80.6192   63.5698   45.1029 da         1 CLA     0.0029805
     85 HBB1       81.1174   63.6516   43.3863 da         1 CLA     -0.0005019
     86 HBA2       80.9090   59.0820   32.8164 dc         1 CLA     -0.0000054
     87 HBA1       81.6732   59.0459   34.2015 dc         1 CLA     -0.0027366
     88 HAC2       72.3896   58.5840   43.9111 dc         1 CLA     0.0006650
     89 HAC1       71.9158   58.6605   42.2721 dc         1 CLA     -0.0040795
     90 HAA2       78.7885   58.2845   34.0376 dc         1 CLA     0.0158140
     91 HAA1       79.4645   59.8157   34.6222 dc         1 CLA     0.0091119
     92 H203       83.1601   60.6628   45.7636 dc         1 CLA     0.0000000
     93 H202       82.7660   59.3507   46.7529 dc         1 CLA     0.0000000
     94 H201       82.7685   60.8980   47.5333 dc         1 CLA     0.0000000
     95 H193       85.6677   61.8056   46.4680 dc         1 CLA     0.0000000
     96 H192       84.9747   61.7940   48.0692 dc         1 CLA     0.0000000
     97 H191       86.5778   61.1436   47.6138 dc         1 CLA     0.0000000
     98 H172       85.4407   59.6527   44.9927 dc         1 CLA     0.0000000
     99 H171       84.5720   58.3537   45.6785 dc         1 CLA     0.0000000
    100 H162       86.4042   57.4626   46.9359 dc         1 CLA     0.0000000
    101 H161       87.4692   58.9270   46.6902 dc         1 CLA     0.0000000
    102 H152       86.4682   56.7820   44.6725 dc         1 CLA     0.0000000
    103 H151       88.1520   56.9532   45.1576 dc         1 CLA     0.0000000
    104 H143       89.2401   59.4206   44.0709 dc         1 CLA     0.0000000
    105 H142       88.1419   60.3882   43.0909 dc         1 CLA     0.0000000
    106 H141       87.8724   60.0458   44.7881 dc         1 CLA     0.0000000
    107 H122       87.3619   56.5924   42.6152 dc         1 CLA     0.0000000
    108 H121       88.9677   57.3098   42.4869 dc         1 CLA     0.0000000
    109 H112       88.1120   58.7857   40.6916 dc         1 CLA     0.0000000
    110 H111       86.5452   58.2022   40.9008 dc         1 CLA     0.0000000
    111 H102       87.3238   55.9882   40.1381 dc         1 CLA     0.0000000
    112 H101       88.9651   56.4737   40.0806 dc         1 CLA     0.0000000
    113 HHD        72.9981   57.6337   40.2131 da         1 CLA     0.0007204
    114 HHC        77.1940   61.0156   43.7999 da         1 CLA     -0.0239543
    115 HHB        81.4076   60.6972   38.7092 da         1 CLA     0.0048934
    116 HBD        76.8995   57.1143   34.4316 dc         1 CLA     -0.0228199
    117 HAB        79.1687   61.6831   44.6288 da         1 CLA     -0.0015175
    118 H93        88.4395   56.5623   36.4769 dc         1 CLA     0.0000000
    119 H92        89.5773   56.1860   37.6673 dc         1 CLA     0.0000000
    120 H91        88.0338   55.2312   37.5876 dc         1 CLA     0.0000000
    121 H8         88.4024   58.2129   38.4179 dc         1 CLA     0.0000000
    122 H72        86.4295   58.2854   37.1638 dc         1 CLA     0.0000000
    123 H71        85.9707   58.1020   38.8334 dc         1 CLA     0.0000000
    124 H62        84.2670   56.5834   37.8605 dc         1 CLA     0.0000000
    125 H61        85.5231   55.5280   38.3652 dc         1 CLA     0.0000000
    126 H52        86.3570   55.3880   36.1981 dc         1 CLA     0.0000000
    127 H51        85.1507   56.5885   35.5278 dc         1 CLA     0.0000000
    128 H43        85.3848   52.9490   35.3046 dc         1 CLA     0.0000000
    129 H42        85.5326   53.1820   37.0820 dc         1 CLA     0.0000000
    130 H41        84.0719   52.5430   36.3719 dc         1 CLA     0.0055729
    131 H3A        81.1543   59.8300   36.3897 dc         1 CLA     -0.0128866
    132 H2A        80.0426   57.1827   35.9349 dc         1 CLA     0.0000000
    133 H2         82.3583   55.0995   36.7472 da         1 CLA     0.0000000
    134 H18        84.6283   59.3605   47.9594 dc         1 CLA     0.0000000
    135 H13        86.5339   58.8352   43.1833 dc         1 CLA     -0.0019983
    136 H12        81.5546   54.4830   34.4955 dc         1 CLA     -0.0018529
    137 H11        83.2537   54.8876   33.8904 dc         1 CLA     
@<TRIPOS>BOND
    1     6     1 1
    2     7     2 1
    3     8     3 1
    4     9     4 1
    5    11     4 1
    6    12     6 1
    7    13     9 1
    8    16     9 1
    9    25     5 1
   10    25    16 1
   11    26    10 1
   12    26    17 1
   13    27    18 1
   14    28    14 1
   15    28    19 1
   16    29    12 1
   17    30    13 1
   18    31    24 1
   19    32     1 1
   20    32    25 1
   21    33    21 1
   22    33    26 1
   23    34    22 1
   24    34    27 1
   25    35    23 1
   26    35    28 1
   27    36    12 1
   28    36    24 1
   29    37    13 1
   30    37    15 1
   31    38    31 1
   32    39    20 1
   33    39    32 1
   34    40     2 1
   35    40    33 1
   36    41     3 1
   37    41    34 1
   38    42     4 1
   39    42    35 1
   40    43    38 1
   41    44     5 1
   42    44    17 1
   43    44    39 1
   44    45    10 1
   45    45    18 1
   46    45    40 1
   47    46    19 1
   48    46    41 1
   49    47    14 1
   50    47    16 1
   51    47    42 1
   52    48    38 1
   53    49    48 1
   54    50    49 1
   55    51    50 1
   56    52    51 1
   57    53    51 1
   58    54    53 1
   59    55    54 1
   60    56    55 1
   61    57    56 1
   62    58    56 1
   63    59    58 1
   64    60    59 1
   65    61    60 1
   66    62    61 1
   67    63    61 1
   68    64    27 1
   69    64    46 1
   70    65     5 1
   71    65    10 1
   72    65    64 1
   73    65    14 1
   74    66    23 1
   75    67    23 1
   76    68    23 1
   77    69    22 1
   78    70    22 1
   79    71    22 1
   80    72    21 1
   81    73    21 1
   82    74    21 1
   83    75    20 1
   84    76    20 1
   85    77    20 1
   86    78    15 1
   87    79    15 1
   88    80    15 1
   89    81     8 1
   90    82     8 1
   91    83     8 1
   92    84     7 1
   93    85     7 1
   94    86     6 1
   95    87     6 1
   96    88     3 1
   97    89     3 1
   98    90     1 1
   99    91     1 1
  100    92    63 1
  101    93    63 1
  102    94    63 1
  103    95    62 1
  104    96    62 1
  105    97    62 1
  106    98    60 1
  107    99    60 1
  108   100    59 1
  109   101    59 1
  110   102    58 1
  111   103    58 1
  112   104    57 1
  113   105    57 1
  114   106    57 1
  115   107    55 1
  116   108    55 1
  117   109    54 1
  118   110    54 1
  119   111    53 1
  120   112    53 1
  121   113    19 1
  122   114    18 1
  123   115    17 1
  124   116     9 1
  125   117     2 1
  126   118    52 1
  127   119    52 1
  128   120    52 1
  129   121    51 1
  130   122    50 1
  131   123    50 1
  132   124    49 1
  133   125    49 1
  134   126    48 1
  135   127    48 1
  136   128    43 1
  137   129    43 1
  138   130    43 1
  139   131    39 1
  140   132    32 1
  141   133    31 1
  142   134    61 1
  143   135    56 1
  144   136    24 1
  145   137    24 1
@<TRIPOS>SUBSTRUCTURE
      1 CLA               1 ****               0 ****  **** 
