# created with PyMOL 2.3.3
@<TRIPOS>MOLECULE
chl_612_tresp_raw
82 87 82                
SMALL
USER_CHARGES
@<TRIPOS>ATOM
1	   C	23.174	45.023	49.679	C.3	1	UNK1	0.00871125	
2	   H	23.051	46.095	49.513	 H	2	UNK2	-0.00199834	
3	   H	22.218	44.525	49.504	 H	3	UNK3	-0.00185294	
4	   H	23.618	44.746	51.099	 H	4	UNK4	-0.00253247	
5	   O	24.209	44.462	48.814	O.3	5	UNK5	0.00033018	
6	   C	23.959	44.559	47.473	C.3	6	UNK6	-0.01565150	
7	   O	22.968	45.096	46.993	O.3	7	UNK7	0.00508730	
8	   C	25.081	43.904	46.688	C.3	8	UNK8	0.02467580	
9	   H	25.435	43.070	47.292	 H	9	UNK9	-0.00273659	
10	   H	24.626	43.484	45.794	 H	10	UNK10	-0.00000539	
11	   C	26.290	44.768	46.279	C.3	11	UNK11	-0.06117790	
12	   H	25.926	45.555	45.626	 H	12	UNK12	0.01581400	
13	   H	27.003	44.171	45.710	 H	13	UNK13	0.00911186	
14	   C	27.048	45.450	47.447	C.3	14	UNK14	0.07642450	
15	   C	27.869	44.477	48.345	C.3	15	UNK15	-0.04693360	
16	   C	27.507	44.576	49.847	C.3	16	UNK16	0.02668660	
17	   H	26.457	44.342	50.007	 H	17	UNK17	-0.00675511	
18	   H	27.709	45.587	50.203	 H	18	UNK18	-0.00384928	
19	   H	28.115	43.874	50.409	 H	19	UNK19	-0.00650296	
20	   H	27.743	43.446	48.012	 H	20	UNK20	0.00557285	
21	   H	26.346	46.009	48.066	 H	21	UNK21	-0.01288660	
22	   C	28.119	46.433	46.966	C.3	22	UNK22	0.12685800	
23	   N	29.379	46.034	47.333	N.3	23	UNK23	-0.04576450	
24	   G	31.272	47.089	46.889	Du	24	UNK24	-0.00637550	
25	   N	32.934	48.315	46.770	N.3	25	UNK25	0.03657170	
26	   C	29.319	44.913	48.076	C.3	26	UNK26	-0.09582590	
27	   C	30.401	44.255	48.656	C.3	27	UNK27	0.01232870	
28	   H	30.150	43.370	49.240	 H	28	UNK28	0.00489341	
29	   C	31.759	44.613	48.678	C.3	29	UNK29	-0.03450420	
30	   C	32.790	43.928	49.431	C.3	30	UNK30	-0.04668210	
31	   C	32.575	42.651	50.203	C.3	31	UNK31	0.04356090	
32	   H	32.042	41.938	49.576	 H	32	UNK32	-0.01035480	
33	   H	31.991	42.852	51.099	 H	33	UNK33	-0.01160150	
34	   H	33.532	42.214	50.486	 H	34	UNK34	-0.01108060	
35	   C	33.950	44.708	49.343	C.3	35	UNK35	-0.00768710	
36	   C	35.236	44.452	50.048	C.3	36	UNK36	0.01758520	
37	   C	36.474	44.813	49.636	C.3	37	UNK37	-0.01719930	
38	   H	36.657	45.341	48.687	 H	38	UNK38	0.00298052	
39	   H	37.372	44.564	50.226	 H	39	UNK39	-0.00050188	
40	   H	35.178	43.883	50.976	 H	40	UNK40	-0.00151754	
41	   N	32.293	45.708	48.054	N.3	41	UNK41	0.09443380	
42	   C	33.588	45.841	48.480	C.3	42	UNK42	-0.17794100	
43	   C	34.386	46.944	48.175	C.3	43	UNK43	0.22168300	
44	   H	35.355	46.963	48.662	 H	44	UNK44	-0.02395430	
45	   C	34.120	48.072	47.395	C.3	45	UNK45	-0.20437600	
46	   C	35.039	49.183	47.160	C.3	46	UNK46	0.01654610	
47	   C	36.438	49.273	47.717	C.3	47	UNK47	0.02365070	
48	   H	36.905	48.290	47.739	 H	48	UNK48	-0.00355351	
49	   H	36.394	49.674	48.727	 H	49	UNK49	-0.00548886	
50	   H	37.052	49.927	47.102	 H	50	UNK50	-0.00573586	
51	   C	34.317	50.145	46.441	C.3	51	UNK51	-0.03373890	
52	   C	34.809	51.532	46.051	C.3	52	UNK52	0.01018000	
53	   C	33.972	52.695	46.601	C.3	53	UNK53	-0.00939338	
54	   H	32.924	52.646	46.320	 H	54	UNK54	0.00344650	
55	   H	34.385	53.633	46.228	 H	55	UNK55	0.00207781	
56	   H	34.042	52.698	47.688	 H	56	UNK56	0.00026659	
57	   H	35.836	51.679	46.381	 H	57	UNK57	0.00066495	
58	   H	34.790	51.627	44.966	 H	58	UNK58	-0.00407945	
59	   C	33.007	49.567	46.198	C.3	59	UNK59	0.06742940	
60	   C	31.961	50.206	45.515	C.3	60	UNK60	-0.05429210	
61	   H	32.168	51.163	45.044	 H	61	UNK61	0.00072043	
62	   C	30.627	49.782	45.470	C.3	62	UNK62	0.07601420	
63	   N	30.225	48.575	46.007	N.3	63	UNK63	-0.08099180	
64	   C	28.894	48.532	45.877	C.3	64	UNK64	0.14432600	
65	   C	27.898	47.619	46.262	C.3	65	UNK65	-0.14344700	
66	   C	26.603	48.193	45.687	C.3	66	UNK66	0.07660740	
67	   C	25.411	48.344	46.558	C.3	67	UNK67	-0.02000500	
68	   O	24.292	47.938	46.262	O.3	68	UNK68	0.00069224	
69	   O	25.697	49.000	47.729	O.3	69	UNK69	0.00402812	
70	   C	24.508	49.321	48.534	C.3	70	UNK70	0.00403654	
71	   H	23.952	48.419	48.795	 H	71	UNK71	-0.00088604	
72	   H	23.854	49.999	47.981	 H	72	UNK72	-0.00256126	
73	   H	24.808	49.817	49.456	 H	73	UNK73	0.00006960	
74	   H	26.296	47.650	44.803	 H	74	UNK74	-0.02281990	
75	   C	26.969	49.609	45.190	C.3	75	UNK75	-0.01327230	
76	   O	26.134	50.409	44.808	O.3	76	UNK76	0.01543190	
77	   C	28.401	49.693	45.253	C.3	77	UNK77	0.03649690	
78	   C	29.488	50.513	44.958	C.3	78	UNK78	0.05499120	
79	   C	29.487	51.868	44.312	C.3	79	UNK79	-0.06099640	
80	   H	28.495	52.079	43.909	 H	80	UNK80	0.01808570	
81	   H	30.212	51.892	43.499	 H	81	UNK81	0.01233660	
82	   H	29.741	52.625	45.054	 H	82	UNK82	0.01795820	
@<TRIPOS>BOND
1 1 2 1
2 1 3 1
3 1 4 1
4 1 5 1
5 5 6 1
6 6 7 1
7 6 8 1
8 8 9 1
9 8 10 1
10 8 11 1
11 11 12 1
12 11 13 1
13 11 14 1
14 14 15 1
15 14 21 1
16 14 22 1
17 15 16 1
18 15 20 1
19 15 26 1
20 16 17 1
21 16 18 1
22 16 19 1
23 22 23 1
24 22 65 1
25 23 26 1
26 24 63 1
27 25 45 1
28 25 59 1
29 26 27 1
30 27 28 1
31 27 29 1
32 29 30 1
33 29 41 1
34 30 31 1
35 30 35 1
36 31 32 1
37 31 33 1
38 31 34 1
39 35 36 1
40 35 42 1
41 36 37 1
42 36 40 1
43 37 38 1
44 37 39 1
45 41 42 1
46 42 43 1
47 43 44 1
48 43 45 1
49 45 46 1
50 46 47 1
51 46 51 1
52 47 48 1
53 47 49 1
54 47 50 1
55 51 52 1
56 51 59 1
57 52 53 1
58 52 57 1
59 52 58 1
60 53 54 1
61 53 55 1
62 53 56 1
63 59 60 1
64 60 61 1
65 60 62 1
66 62 63 1
67 62 78 1
68 63 64 1
69 64 65 1
70 64 77 1
71 65 66 1
72 66 67 1
73 66 74 1
74 66 75 1
75 67 68 1
76 67 69 1
77 69 70 1
78 70 71 1
79 70 72 1
80 70 73 1
81 75 76 1
82 75 77 1
83 77 78 1
84 78 79 1
85 79 80 1
86 79 81 1
87 79 82 1
@<TRIPOS>SUBSTRUCTURE
1	UNK1	1	GROUP	1 ****	UNK
2	UNK2	2	GROUP	1 ****	UNK
3	UNK3	3	GROUP	1 ****	UNK
4	UNK4	4	GROUP	1 ****	UNK
5	UNK5	5	GROUP	1 ****	UNK
6	UNK6	6	GROUP	1 ****	UNK
7	UNK7	7	GROUP	1 ****	UNK
8	UNK8	8	GROUP	1 ****	UNK
9	UNK9	9	GROUP	1 ****	UNK
10	UNK10	10	GROUP	1 ****	UNK
11	UNK11	11	GROUP	1 ****	UNK
12	UNK12	12	GROUP	1 ****	UNK
13	UNK13	13	GROUP	1 ****	UNK
14	UNK14	14	GROUP	1 ****	UNK
15	UNK15	15	GROUP	1 ****	UNK
16	UNK16	16	GROUP	1 ****	UNK
17	UNK17	17	GROUP	1 ****	UNK
18	UNK18	18	GROUP	1 ****	UNK
19	UNK19	19	GROUP	1 ****	UNK
20	UNK20	20	GROUP	1 ****	UNK
21	UNK21	21	GROUP	1 ****	UNK
22	UNK22	22	GROUP	1 ****	UNK
23	UNK23	23	GROUP	1 ****	UNK
24	UNK24	24	GROUP	1 ****	UNK
25	UNK25	25	GROUP	1 ****	UNK
26	UNK26	26	GROUP	1 ****	UNK
27	UNK27	27	GROUP	1 ****	UNK
28	UNK28	28	GROUP	1 ****	UNK
29	UNK29	29	GROUP	1 ****	UNK
30	UNK30	30	GROUP	1 ****	UNK
31	UNK31	31	GROUP	1 ****	UNK
32	UNK32	32	GROUP	1 ****	UNK
33	UNK33	33	GROUP	1 ****	UNK
34	UNK34	34	GROUP	1 ****	UNK
35	UNK35	35	GROUP	1 ****	UNK
36	UNK36	36	GROUP	1 ****	UNK
37	UNK37	37	GROUP	1 ****	UNK
38	UNK38	38	GROUP	1 ****	UNK
39	UNK39	39	GROUP	1 ****	UNK
40	UNK40	40	GROUP	1 ****	UNK
41	UNK41	41	GROUP	1 ****	UNK
42	UNK42	42	GROUP	1 ****	UNK
43	UNK43	43	GROUP	1 ****	UNK
44	UNK44	44	GROUP	1 ****	UNK
45	UNK45	45	GROUP	1 ****	UNK
46	UNK46	46	GROUP	1 ****	UNK
47	UNK47	47	GROUP	1 ****	UNK
48	UNK48	48	GROUP	1 ****	UNK
49	UNK49	49	GROUP	1 ****	UNK
50	UNK50	50	GROUP	1 ****	UNK
51	UNK51	51	GROUP	1 ****	UNK
52	UNK52	52	GROUP	1 ****	UNK
53	UNK53	53	GROUP	1 ****	UNK
54	UNK54	54	GROUP	1 ****	UNK
55	UNK55	55	GROUP	1 ****	UNK
56	UNK56	56	GROUP	1 ****	UNK
57	UNK57	57	GROUP	1 ****	UNK
58	UNK58	58	GROUP	1 ****	UNK
59	UNK59	59	GROUP	1 ****	UNK
60	UNK60	60	GROUP	1 ****	UNK
61	UNK61	61	GROUP	1 ****	UNK
62	UNK62	62	GROUP	1 ****	UNK
63	UNK63	63	GROUP	1 ****	UNK
64	UNK64	64	GROUP	1 ****	UNK
65	UNK65	65	GROUP	1 ****	UNK
66	UNK66	66	GROUP	1 ****	UNK
67	UNK67	67	GROUP	1 ****	UNK
68	UNK68	68	GROUP	1 ****	UNK
69	UNK69	69	GROUP	1 ****	UNK
70	UNK70	70	GROUP	1 ****	UNK
71	UNK71	71	GROUP	1 ****	UNK
72	UNK72	72	GROUP	1 ****	UNK
73	UNK73	73	GROUP	1 ****	UNK
74	UNK74	74	GROUP	1 ****	UNK
75	UNK75	75	GROUP	1 ****	UNK
76	UNK76	76	GROUP	1 ****	UNK
77	UNK77	77	GROUP	1 ****	UNK
78	UNK78	78	GROUP	1 ****	UNK
79	UNK79	79	GROUP	1 ****	UNK
80	UNK80	80	GROUP	1 ****	UNK
81	UNK81	81	GROUP	1 ****	UNK
82	UNK82	82	GROUP	1 ****	UNK
