# created with PyMOL 2.3.3
@<TRIPOS>MOLECULE
lut_tresp_raw
98 99 98                
SMALL
USER_CHARGES
@<TRIPOS>ATOM
1	   C	42.060	53.930	46.817	C.3	1	UNK1	-0.00253405
2	   H	40.978	53.904	46.659	 H	2	UNK2	0.00078061
3	   H	42.238	54.338	47.817	 H	3	UNK3	0.00068395
4	   H	42.466	54.641	46.100	 H	4	UNK4	0.00053193
5	   C	42.683	52.535	46.640	C.3	5	UNK5	-0.00113880
6	   C	42.011	51.741	47.777	C.3	6	UNK6	0.00501179
7	   H	40.920	51.754	47.704	 H	7	UNK7	-0.00130529
8	   H	42.330	50.696	47.756	 H	8	UNK8	-0.00154921
9	   H	42.276	52.140	48.761	 H	9	UNK9	-0.00096492
10	   C	44.182	52.648	46.917	C.3	10	UNK10	-0.00029563
11	   H	44.591	51.644	47.062	 H	11	UNK11	-0.00025702
12	   H	44.360	53.221	47.835	 H	12	UNK12	0.00022072
13	   C	44.952	53.277	45.768	C.3	13	UNK13	0.00028599
14	   O	46.338	53.351	46.115	O.3	14	UNK14	0.00003169
15	   H	46.506	54.143	46.653	 H	15	UNK15	-0.00011202
16	   H	44.531	54.268	45.520	 H	16	UNK16	0.00000340
17	   C	44.767	52.388	44.552	C.3	17	UNK17	0.00038303
18	   H	45.409	51.502	44.652	 H	18	UNK18	0.00001301
19	   H	45.177	52.912	43.676	 H	19	UNK19	-0.00013469
20	   C	43.343	51.953	44.274	C.3	20	UNK20	-0.00008354
21	   C	43.243	51.136	43.006	C.3	21	UNK21	0.00143700
22	   H	43.937	51.499	42.238	 H	22	UNK22	-0.00056282
23	   H	43.483	50.085	43.210	 H	23	UNK23	-0.00020696
24	   H	42.227	51.177	42.593	 H	24	UNK24	-0.00023047
25	   C	42.359	52.066	45.203	C.3	25	UNK25	0.00143786
26	   C	41.003	51.526	44.966	C.3	26	UNK26	0.00320417
27	   H	40.375	52.207	44.395	 H	27	UNK27	-0.00080508
28	   C	40.492	50.315	45.301	C.3	28	UNK28	-0.00176788
29	   H	41.167	49.633	45.811	 H	29	UNK29	0.00007228
30	   C	39.158	49.801	45.007	C.3	30	UNK30	0.01591050
31	   C	38.153	50.747	44.396	C.3	31	UNK31	-0.02336930
32	   H	37.144	50.343	44.349	 H	32	UNK32	0.00537835
33	   H	38.075	51.671	44.969	 H	33	UNK33	0.00538182
34	   H	38.423	51.034	43.379	 H	34	UNK34	0.00579556
35	   C	38.903	48.476	45.256	C.3	35	UNK35	-0.00699068
36	   H	39.717	47.908	45.707	 H	36	UNK36	0.00295799
37	   C	37.704	47.707	45.040	C.3	37	UNK37	0.00880642
38	   H	36.864	48.170	44.528	 H	38	UNK38	-0.00371955
39	   C	37.545	46.443	45.533	C.3	39	UNK39	-0.01205850
40	   H	38.375	46.043	46.112	 H	40	UNK40	0.00197011
41	   C	36.367	45.601	45.492	C.3	41	UNK41	0.00837962
42	   C	35.235	45.991	44.574	C.3	42	UNK42	-0.00114162
43	   H	34.572	45.158	44.354	 H	43	UNK43	0.00053111
44	   H	34.616	46.779	44.996	 H	44	UNK44	0.00064419
45	   H	35.593	46.342	43.608	 H	45	UNK45	-0.00118537
46	   C	36.393	44.423	46.205	C.3	46	UNK46	-0.00986263
47	   H	37.323	44.195	46.725	 H	47	UNK47	0.00483486
48	   C	35.338	43.490	46.482	C.3	48	UNK48	-0.00605704
49	   H	34.344	43.667	46.071	 H	49	UNK49	0.00125782
50	   C	35.498	42.389	47.282	C.3	50	UNK50	-0.00429459
51	   H	36.488	42.227	47.704	 H	51	UNK51	0.00074125
52	   C	34.445	41.462	47.585	C.3	52	UNK52	-0.00905833
53	   H	33.473	41.773	47.201	 H	53	UNK53	0.00511703
54	   C	34.485	40.245	48.234	C.3	54	UNK54	0.00528601
55	   C	35.775	39.542	48.579	C.3	55	UNK55	0.00066173
56	   H	36.584	40.236	48.799	 H	56	UNK56	-0.00143313
57	   H	35.689	38.899	49.450	 H	57	UNK57	0.00011716
58	   H	36.112	38.915	47.756	 H	58	UNK58	0.00007942
59	   C	33.236	39.522	48.362	C.3	59	UNK59	-0.00778792
60	   H	32.385	40.049	47.950	 H	60	UNK60	0.00077014
61	   C	32.957	38.286	48.877	C.3	61	UNK61	0.00799937
62	   H	33.759	37.688	49.298	 H	62	UNK62	-0.00355757
63	   C	31.619	37.750	48.879	C.3	63	UNK63	-0.00715330
64	   H	30.873	38.404	48.431	 H	64	UNK64	0.00313430
65	   C	31.135	36.572	49.383	C.3	65	UNK65	0.01473730
66	   C	32.001	35.533	50.051	C.3	66	UNK66	-0.01948550
67	   H	33.054	35.621	49.790	 H	67	UNK67	0.00492255
68	   H	31.939	35.582	51.137	 H	68	UNK68	0.00433740
69	   H	31.712	34.525	49.757	 H	69	UNK69	0.00435178
70	   C	29.693	36.338	49.320	C.3	70	UNK70	0.00002181
71	   H	29.142	36.990	48.646	 H	71	UNK71	-0.00050265
72	   C	28.972	35.433	50.030	C.3	72	UNK72	-0.00143048
73	   H	29.509	34.796	50.726	 H	73	UNK73	0.00020384
74	   C	27.485	35.158	49.917	C.3	74	UNK74	0.00862995
75	   H	27.045	35.920	49.258	 H	75	UNK75	-0.00163629
76	   C	26.703	35.267	51.284	C.3	76	UNK76	-0.00276705
77	   C	27.471	34.734	52.518	C.3	77	UNK77	0.00141710
78	   H	28.316	35.383	52.769	 H	78	UNK78	-0.00038598
79	   H	26.835	34.691	53.408	 H	79	UNK79	-0.00048111
80	   H	27.879	33.734	52.352	 H	80	UNK80	-0.00020625
81	   C	26.290	36.712	51.630	C.3	81	UNK81	0.00111427
82	   H	27.166	37.344	51.789	 H	82	UNK82	-0.00015342
83	   H	25.699	37.165	50.828	 H	83	UNK83	-0.00019028
84	   H	25.689	36.758	52.544	 H	84	UNK84	-0.00036306
85	   C	25.386	34.489	51.202	C.3	85	UNK85	0.00008599
86	   H	24.756	34.943	50.431	 H	86	UNK86	-0.00010102
87	   H	24.847	34.523	52.154	 H	87	UNK87	0.00025054
88	   C	25.565	33.040	50.851	C.3	88	UNK88	-0.00119075
89	   O	24.302	32.369	50.882	O.3	89	UNK89	0.00031416
90	   H	23.752	32.552	50.103	 H	90	UNK90	-0.00011107
91	   H	26.155	32.554	51.646	 H	91	UNK91	0.00031348
92	   C	26.341	32.954	49.590	C.3	92	UNK92	0.00125001
93	   H	26.176	32.051	49.009	 H	93	UNK93	0.00004275
94	   C	27.211	33.862	49.157	C.3	94	UNK94	-0.00451238
95	   C	27.919	33.664	47.846	C.3	95	UNK95	0.00422636
96	   H	28.986	33.474	48.009	 H	96	UNK96	-0.00097806
97	   H	27.499	32.811	47.297	 H	97	UNK97	-0.00083329
98	   H	27.814	34.557	47.219	 H	98	UNK98	-0.00105330
@<TRIPOS>BOND
1 1 2 1
2 1 3 1
3 1 4 1
4 1 5 1
5 5 6 1
6 5 10 1
7 5 25 1
8 6 7 1
9 6 8 1
10 6 9 1
11 10 11 1
12 10 12 1
13 10 13 1
14 13 14 1
15 13 16 1
16 13 17 1
17 14 15 1
18 17 18 1
19 17 19 1
20 17 20 1
21 20 21 1
22 20 25 1
23 21 22 1
24 21 23 1
25 21 24 1
26 25 26 1
27 26 27 1
28 26 28 1
29 28 29 1
30 28 30 1
31 30 31 1
32 30 35 1
33 31 32 1
34 31 33 1
35 31 34 1
36 35 36 1
37 35 37 1
38 37 38 1
39 37 39 1
40 39 40 1
41 39 41 1
42 41 42 1
43 41 46 1
44 42 43 1
45 42 44 1
46 42 45 1
47 46 47 1
48 46 48 1
49 48 49 1
50 48 50 1
51 50 51 1
52 50 52 1
53 52 53 1
54 52 54 1
55 54 55 1
56 54 59 1
57 55 56 1
58 55 57 1
59 55 58 1
60 59 60 1
61 59 61 1
62 61 62 1
63 61 63 1
64 63 64 1
65 63 65 1
66 65 66 1
67 65 70 1
68 66 67 1
69 66 68 1
70 66 69 1
71 70 71 1
72 70 72 1
73 72 73 1
74 72 74 1
75 74 75 1
76 74 76 1
77 74 94 1
78 76 77 1
79 76 81 1
80 76 85 1
81 77 78 1
82 77 79 1
83 77 80 1
84 81 82 1
85 81 83 1
86 81 84 1
87 85 86 1
88 85 87 1
89 85 88 1
90 88 89 1
91 88 91 1
92 88 92 1
93 89 90 1
94 92 93 1
95 92 94 1
96 94 95 1
97 95 96 1
98 95 97 1
99 95 98 1
@<TRIPOS>SUBSTRUCTURE
1	UNK1	1	GROUP	1 ****	UNK
2	UNK2	2	GROUP	1 ****	UNK
3	UNK3	3	GROUP	1 ****	UNK
4	UNK4	4	GROUP	1 ****	UNK
5	UNK5	5	GROUP	1 ****	UNK
6	UNK6	6	GROUP	1 ****	UNK
7	UNK7	7	GROUP	1 ****	UNK
8	UNK8	8	GROUP	1 ****	UNK
9	UNK9	9	GROUP	1 ****	UNK
10	UNK10	10	GROUP	1 ****	UNK
11	UNK11	11	GROUP	1 ****	UNK
12	UNK12	12	GROUP	1 ****	UNK
13	UNK13	13	GROUP	1 ****	UNK
14	UNK14	14	GROUP	1 ****	UNK
15	UNK15	15	GROUP	1 ****	UNK
16	UNK16	16	GROUP	1 ****	UNK
17	UNK17	17	GROUP	1 ****	UNK
18	UNK18	18	GROUP	1 ****	UNK
19	UNK19	19	GROUP	1 ****	UNK
20	UNK20	20	GROUP	1 ****	UNK
21	UNK21	21	GROUP	1 ****	UNK
22	UNK22	22	GROUP	1 ****	UNK
23	UNK23	23	GROUP	1 ****	UNK
24	UNK24	24	GROUP	1 ****	UNK
25	UNK25	25	GROUP	1 ****	UNK
26	UNK26	26	GROUP	1 ****	UNK
27	UNK27	27	GROUP	1 ****	UNK
28	UNK28	28	GROUP	1 ****	UNK
29	UNK29	29	GROUP	1 ****	UNK
30	UNK30	30	GROUP	1 ****	UNK
31	UNK31	31	GROUP	1 ****	UNK
32	UNK32	32	GROUP	1 ****	UNK
33	UNK33	33	GROUP	1 ****	UNK
34	UNK34	34	GROUP	1 ****	UNK
35	UNK35	35	GROUP	1 ****	UNK
36	UNK36	36	GROUP	1 ****	UNK
37	UNK37	37	GROUP	1 ****	UNK
38	UNK38	38	GROUP	1 ****	UNK
39	UNK39	39	GROUP	1 ****	UNK
40	UNK40	40	GROUP	1 ****	UNK
41	UNK41	41	GROUP	1 ****	UNK
42	UNK42	42	GROUP	1 ****	UNK
43	UNK43	43	GROUP	1 ****	UNK
44	UNK44	44	GROUP	1 ****	UNK
45	UNK45	45	GROUP	1 ****	UNK
46	UNK46	46	GROUP	1 ****	UNK
47	UNK47	47	GROUP	1 ****	UNK
48	UNK48	48	GROUP	1 ****	UNK
49	UNK49	49	GROUP	1 ****	UNK
50	UNK50	50	GROUP	1 ****	UNK
51	UNK51	51	GROUP	1 ****	UNK
52	UNK52	52	GROUP	1 ****	UNK
53	UNK53	53	GROUP	1 ****	UNK
54	UNK54	54	GROUP	1 ****	UNK
55	UNK55	55	GROUP	1 ****	UNK
56	UNK56	56	GROUP	1 ****	UNK
57	UNK57	57	GROUP	1 ****	UNK
58	UNK58	58	GROUP	1 ****	UNK
59	UNK59	59	GROUP	1 ****	UNK
60	UNK60	60	GROUP	1 ****	UNK
61	UNK61	61	GROUP	1 ****	UNK
62	UNK62	62	GROUP	1 ****	UNK
63	UNK63	63	GROUP	1 ****	UNK
64	UNK64	64	GROUP	1 ****	UNK
65	UNK65	65	GROUP	1 ****	UNK
66	UNK66	66	GROUP	1 ****	UNK
67	UNK67	67	GROUP	1 ****	UNK
68	UNK68	68	GROUP	1 ****	UNK
69	UNK69	69	GROUP	1 ****	UNK
70	UNK70	70	GROUP	1 ****	UNK
71	UNK71	71	GROUP	1 ****	UNK
72	UNK72	72	GROUP	1 ****	UNK
73	UNK73	73	GROUP	1 ****	UNK
74	UNK74	74	GROUP	1 ****	UNK
75	UNK75	75	GROUP	1 ****	UNK
76	UNK76	76	GROUP	1 ****	UNK
77	UNK77	77	GROUP	1 ****	UNK
78	UNK78	78	GROUP	1 ****	UNK
79	UNK79	79	GROUP	1 ****	UNK
80	UNK80	80	GROUP	1 ****	UNK
81	UNK81	81	GROUP	1 ****	UNK
82	UNK82	82	GROUP	1 ****	UNK
83	UNK83	83	GROUP	1 ****	UNK
84	UNK84	84	GROUP	1 ****	UNK
85	UNK85	85	GROUP	1 ****	UNK
86	UNK86	86	GROUP	1 ****	UNK
87	UNK87	87	GROUP	1 ****	UNK
88	UNK88	88	GROUP	1 ****	UNK
89	UNK89	89	GROUP	1 ****	UNK
90	UNK90	90	GROUP	1 ****	UNK
91	UNK91	91	GROUP	1 ****	UNK
92	UNK92	92	GROUP	1 ****	UNK
93	UNK93	93	GROUP	1 ****	UNK
94	UNK94	94	GROUP	1 ****	UNK
95	UNK95	95	GROUP	1 ****	UNK
96	UNK96	96	GROUP	1 ****	UNK
97	UNK97	97	GROUP	1 ****	UNK
98	UNK98	98	GROUP	1 ****	UNK
