@<TRIPOS>MOLECULE
Cpptraj generated mol2 file, added tresp charges.
   98    99     1     0     0
SMALL
USER_CHARGES


@<TRIPOS>ATOM
      1 C1         70.0297   62.2157   50.8476 Z1         1 LUT     -0.0011388
      2 C2         68.6851   61.8495   51.5272 Z2         1 LUT     -0.0002956
      3 C3         67.7533   63.0113   51.8021 Z3         1 LUT     0.0002860
      4 O3         67.6719   63.2893   53.1909 S1         1 LUT     0.0000317
      5 C4         67.9909   64.2915   51.0098 Z4         1 LUT     0.0003830
      6 C5         68.7018   64.0647   49.7055 Z5         1 LUT     -0.0000835
      7 C6         69.7144   63.1489   49.6368 Z6         1 LUT     0.0014379
      8 C7         70.1352   62.6400   48.3531 Z7         1 LUT     0.0032042
      9 C8         71.3837   62.7886   47.8775 Z8         1 LUT     -0.0017679
     10 C9         71.7570   62.4638   46.5624 Z9         1 LUT     0.0159105
     11 C10        72.5305   63.3270   45.8026 Y1         1 LUT     -0.0069907
     12 C11        73.0980   63.1317   44.5204 Y2         1 LUT     0.0088064
     13 C12        74.2735   63.6746   44.0841 Y3         1 LUT     -0.0120585
     14 C13        75.0304   63.5127   42.7937 Y4         1 LUT     0.0083796
     15 C14        76.1691   64.2606   42.6763 Y5         1 LUT     -0.0098626
     16 C15        77.1780   64.3507   41.6429 Y6         1 LUT     -0.0060570
     17 C16        70.8303   60.9506   50.5735 Y7         1 LUT     0.0050118
     18 C17        70.7599   63.1538   51.8827 Y7         1 LUT     -0.0025341
     19 C18        67.9367   64.6863   48.5424 Y9         1 LUT     0.0014370
     20 C19        71.1520   61.3145   45.9113 W1         1 LUT     -0.0233693
     21 C20        74.3898   62.8470   41.6596 W2         1 LUT     -0.0011416
     22 C21        88.3083   65.5911   35.5580 Z1         1 LUT     -0.0027671
     23 C22        89.2188   64.9750   34.4262 Z2         1 LUT     0.0000860
     24 C23        89.4533   65.8026   33.1962 Z3         1 LUT     -0.0011908
     25 O23        90.1787   64.9932   32.2248 S1         1 LUT     0.0003142
     26 C24        88.2218   66.6399   32.8835 W6         1 LUT     0.0012500
     27 C25        87.0992   66.7643   33.5821 Z5         1 LUT     -0.0045124
     28 C26        86.9512   66.0493   34.9683 W8         1 LUT     0.0086300
     29 C27        86.1868   66.9276   35.9888 Z7         1 LUT     -0.0014305
     30 C28        85.0936   66.5251   36.6434 Z8         1 LUT     0.0000218
     31 C29        84.4271   67.1431   37.6928 Z9         1 LUT     0.0147373
     32 C30        83.3332   66.5359   38.2505 Y1         1 LUT     -0.0071533
     33 C31        82.4997   66.8989   39.3770 Y2         1 LUT     0.0079994
     34 C32        81.5449   65.9867   39.8084 Y3         1 LUT     -0.0077879
     35 C33        80.6109   66.1004   40.9253 Y4         1 LUT     0.0052860
     36 C34        79.5269   65.2405   40.8865 Y5         1 LUT     -0.0090583
     37 C35        78.3775   65.0861   41.7682 Y6         1 LUT     -0.0042946
     38 C36        89.0983   66.6660   36.2673 Y7         1 LUT     0.0014171
     39 C37        88.1433   64.5437   36.6372 Y7         1 LUT     0.0011143
     40 C38        86.0178   67.6507   33.0730 Y9         1 LUT     0.0042264
     41 C39        84.7868   68.5250   38.1823 W1         1 LUT     -0.0194855
     42 C40        80.9169   66.9248   42.1858 W2         1 LUT     0.0006617
     43 H403       80.6103   67.9638   42.0539 R7         1 LUT     -0.0014331
     44 H402       80.3860   66.4440   43.0160 R7         1 LUT     0.0001172
     45 H401       82.0241   66.9251   42.2935 R7         1 LUT     0.0000794
     46 H393       84.9492   69.2419   37.3539 R4         1 LUT     0.0049226
     47 H392       84.0954   68.9997   38.9112 R4         1 LUT     0.0043374
     48 H391       85.8218   68.4209   38.6404 R4         1 LUT     0.0043518
     49 H383       85.3633   67.0727   32.3183 R1         1 LUT     -0.0009781
     50 H382       85.4007   68.1571   33.8188 R1         1 LUT     -0.0008333
     51 H381       86.4753   68.4338   32.4418 R1         1 LUT     -0.0010533
     52 H373       87.6407   63.6191   36.3150 T4         1 LUT     -0.0001534
     53 H372       89.0978   64.3428   37.1215 T4         1 LUT     -0.0001903
     54 H371       87.4504   64.8285   37.4802 T4         1 LUT     -0.0003631
     55 H363       90.1753   66.2963   36.4293 T4         1 LUT     -0.0003860
     56 H362       89.1356   67.5479   35.7050 T4         1 LUT     -0.0004811
     57 H361       88.6270   67.0386   37.1787 T4         1 LUT     -0.0002063
     58 H222       90.2040   64.6467   34.7468 U2         1 LUT     0.0002505
     59 H221       88.7731   64.0916   34.0434 U2         1 LUT     -0.0001010
     60 H203       74.7688   63.1839   40.6814 R7         1 LUT     0.0005311
     61 H202       74.5338   61.8170   41.6316 R7         1 LUT     0.0006442
     62 H201       73.3141   62.9451   41.5549 R7         1 LUT     -0.0011854
     63 H193       71.9015   60.6135   45.3986 R4         1 LUT     0.0053784
     64 H192       70.6951   60.6057   46.6188 R4         1 LUT     0.0053818
     65 H191       70.3604   61.5317   45.2417 R4         1 LUT     0.0057956
     66 H183       68.6418   65.2958   47.9184 R1         1 LUT     -0.0005628
     67 H182       67.5898   63.8900   47.8940 R1         1 LUT     -0.0002070
     68 H181       67.2097   65.4461   48.8380 R1         1 LUT     -0.0002305
     69 H173       70.1997   63.9880   52.2767 T4         1 LUT     0.0007806
     70 H172       71.1183   62.6637   52.7785 T4         1 LUT     0.0006840
     71 H171       71.6989   63.5583   51.4302 T4         1 LUT     0.0005319
     72 H163       71.8538   61.0709   50.1170 T4         1 LUT     -0.0013053
     73 H162       70.9393   60.3623   51.5145 T4         1 LUT     -0.0015492
     74 H161       70.2097   60.3318   49.8196 T4         1 LUT     -0.0009649
     75 HO3        67.2067   62.6123   53.6559 Q1         1 LUT     -0.0001120
     76 H8         72.0479   63.3620   48.4736 U7         1 LUT     0.0000723
     77 H7         69.2887   62.3237   47.7223 U6         1 LUT     -0.0008051
     78 H42        67.0934   64.8356   50.8980 U5         1 LUT     0.0000130
     79 H41        68.4545   65.0927   51.6511 U5         1 LUT     -0.0001347
     80 H35        78.3697   65.6246   42.6772 T3         1 LUT     0.0007413
     81 H34        79.4931   64.7182   39.9719 T2         1 LUT     0.0051170
     82 H32        81.2855   65.1981   39.1199 T1         1 LUT     0.0007701
     83 H31        82.6888   67.6999   39.9575 U9         1 LUT     -0.0035576
     84 H30        82.9905   65.6038   37.7598 U8         1 LUT     0.0031343
     85 H3         66.7367   62.6956   51.4690 U3         1 LUT     0.0000034
     86 H28        84.6460   65.5916   36.2441 U7         1 LUT     -0.0005027
     87 H27        86.6764   67.7906   36.3559 U6         1 LUT     0.0002038
     88 H26        86.4347   65.1225   34.5887 Q6         1 LUT     -0.0016363
     89 H24        88.3333   67.3520   32.0416 Q5         1 LUT     0.0000428
     90 H23        90.1663   66.5322   33.6234 U3         1 LUT     0.0003135
     91 H22        68.0224   61.1451   50.9913 U2         1 LUT     -0.0002570
     92 H21        68.7743   61.2808   52.4529 U2         1 LUT     0.0002207
     93 H15        77.2756   63.8751   40.6748 T3         1 LUT     0.0012578
     94 H14        76.4488   64.8257   43.5858 T2         1 LUT     0.0048349
     95 H12        74.7558   64.3985   44.7865 T1         1 LUT     0.0019701
     96 H11        72.6725   62.3665   43.8464 U9         1 LUT     -0.0037196
     97 H10        72.9351   64.1018   46.4512 U8         1 LUT     0.0029580
     98 H1         89.5658   64.5885   31.6031 Q1         1 LUT     -0.0001111
@<TRIPOS>BOND
    1     2     1 1
    2     3     2 1
    3     4     3 1
    4     5     3 1
    5     6     5 1
    6     7     1 1
    7     7     6 1
    8     8     7 1
    9     9     8 1
   10    10     9 1
   11    11    10 1
   12    12    11 1
   13    13    12 1
   14    14    13 1
   15    15    14 1
   16    16    15 1
   17    17     1 1
   18    18     1 1
   19    19     6 1
   20    20    10 1
   21    21    14 1
   22    23    22 1
   23    24    23 1
   24    25    24 1
   25    26    24 1
   26    27    26 1
   27    28    22 1
   28    28    27 1
   29    29    28 1
   30    30    29 1
   31    31    30 1
   32    32    31 1
   33    33    32 1
   34    34    33 1
   35    35    34 1
   36    36    35 1
   37    37    16 1
   38    37    36 1
   39    38    22 1
   40    39    22 1
   41    40    27 1
   42    41    31 1
   43    42    35 1
   44    43    42 1
   45    44    42 1
   46    45    42 1
   47    46    41 1
   48    47    41 1
   49    48    41 1
   50    49    40 1
   51    50    40 1
   52    51    40 1
   53    52    39 1
   54    53    39 1
   55    54    39 1
   56    55    38 1
   57    56    38 1
   58    57    38 1
   59    58    23 1
   60    59    23 1
   61    60    21 1
   62    61    21 1
   63    62    21 1
   64    63    20 1
   65    64    20 1
   66    65    20 1
   67    66    19 1
   68    67    19 1
   69    68    19 1
   70    69    18 1
   71    70    18 1
   72    71    18 1
   73    72    17 1
   74    73    17 1
   75    74    17 1
   76    75     4 1
   77    76     9 1
   78    77     8 1
   79    78     5 1
   80    79     5 1
   81    80    37 1
   82    81    36 1
   83    82    34 1
   84    83    33 1
   85    84    32 1
   86    85     3 1
   87    86    30 1
   88    87    29 1
   89    88    28 1
   90    89    26 1
   91    90    24 1
   92    91     2 1
   93    92     2 1
   94    93    16 1
   95    94    15 1
   96    95    13 1
   97    96    12 1
   98    97    11 1
   99    98    25 1
@<TRIPOS>SUBSTRUCTURE
      1 LUT               1 ****               0 ****  **** 
